// dummy file to placate paraView
FoamFile {
    version     2.0;
    format      ascii;
    class       dictionary;
    location    "system";
    object      fvSchemes;
}

offCentre 0.5;
SIgravityWaves true;

ddtSchemes {
    default         Euler;
}

gradSchemes {
    default         none;
    grad(theta)     Gauss midPoint;
}

interpolationSchemes {
    default         none;
    interpolate(theta) midPoint;
    interpolate(rho) midPoint;
    interpolate(convection(U,u)) midPoint;
    H midPoint;
    interpolate(u) midPoint;
    interpolate(grad(thetaf)) midPoint;
    thetaFromb midPoint;
}

divSchemes {
    default         none;
    div(U,theta)    Gauss cubicUpwindCPCFit Cartesian;
    div(U,u)        Gauss cubicUpwindCPCFit Cartesian;
}

laplacianSchemes {
    default         none;
    laplacian(gradPcoeff,Exner) Gauss linear uncorrected;
    laplacian((0.5*(((((G*0.5)*Cp)*deltaT)*rhof)*thetaf)),Exner) Gauss linear uncorrected;
}

snGradSchemes
{
    default         none;
    snGrad(Exner)   uncorrected;
    snGrad(theta)   uncorrected;
}

fluxRequired
{
    default         no;
    Exner;
}
