FoamFile
{
    version     2.0;
    format      ascii;
    class       dictionary;
    object      createPatchDict;
}

pointSync false;

patches
(
    {
        name inlet;
        patchInfo
        {
            type inlet;
        }
        constructFrom set;
        set inlet;
    }
    {
        name outlet;
        patchInfo
        {
            type outlet;
        }
        constructFrom set;
        set outlet;
    }
    {
        name ground;
        patchInfo
        {
            type wall;
        }
        constructFrom set;
        set ground;
    }
    {
        name top;
        patchInfo
        {
            type wall;
        }
        constructFrom set;
        set top;
    }
    {
        name frontAndBack;
        patchInfo
        {
            type empty;
        }
        constructFrom set;
        set frontAndBack;
    }
);
