/*---------------------------------------------------------------------------*\
| =========                 |                                                 |
| \\      /  F ield         | OpenFOAM: The Open Source CFD Toolbox           |
|  \\    /   O peration     | Version:  1.4                                   |
|   \\  /    A nd           | Web:      http://www.openfoam.org               |
|    \\/     M anipulation  |                                                 |
\*---------------------------------------------------------------------------*/

FoamFile
{
    version         2.0;
    format          ascii;

    root            "";
    case            "";
    instance        "";
    local           "";

    class           dictionary;
    object          fvSchemes;
}

// * * * * * * * * * * * * * * * * * * * * * * * * * * * * * * * * * * * * * //

offCentre 0.5;
SIgravityWaves true;

ddtSchemes
{
    default Euler;
}

gradSchemes
{
    default                  none;
    grad(theta)     	     Gauss midPoint;
    linearUpwind_grad(theta) Gauss linear;
    linearUpwind_grad(u)     Gauss linear;
}

divSchemes
{
    default         none;
    div(U,theta)    Gauss linearUpwind linearUpwind_grad(theta);
    div(U,u)        Gauss linearUpwind linearUpwind_grad(u);
}

laplacianSchemes
{
    default         Gauss linear uncorrected;
}

interpolationSchemes
{
    default        		 none; 
    interpolate(theta)    	 midPoint;
    interpolate(rho)    	 midPoint;
    interpolate(convection(U,u)) midPoint;
    interpolate(u)	         midPoint;
    interpolate(grad(theta))     midPoint;
    interpolate(grad(thetaf))    midPoint;
    interpolate(Exner)           midPoint;
    H                            midPoint;
    thetaFromb                   midPoint;
}

snGradSchemes
{
    default         none;
    snGrad(Exner)   uncorrected;
    snGrad(theta)   uncorrected;
}

fluxRequired
{
    default         no;
    Exner;
}

// ************************************************************************* //
