FoamFile {
    version     2.0;
    format      ascii;
    class       dictionary;
    location    "constant";
    object      mountainDict;
}

type            schaerExp;
halfWidth	5e3;
peakHeight	250;
wavelength	4e3;
tolerance	120;
