FoamFile {
    version     2.0;
    format      ascii;
    class       dictionary;
    location    "constant";
    object	setScalarOverOrographyDict;
}

type		schaerRadial;
centre		(-50e3 0 0e3);
halfWidth	(25e3 1 10e3);
