FoamFile {
    version     2.0;
    format      ascii;
    class       dictionary;
    location    "constant";
    object      velocityFieldDict;
}

type			btf;
speed			10;
domainHeight		10e3;

mountain
{
	type		schaerExp;
	halfWidth	5e3;
	peakHeight	250;
	wavelength	4e3;
}
